# File generated by Flopy version 3.3.2 on 01/22/2021 at 16:22:54.
BEGIN options
END options

BEGIN timing
  TDIS6  tuto01_mf6.tdis
END timing

BEGIN models
  gwf6  tuto01_mf6.nam.nam  tuto01_mf6.nam
END models

BEGIN exchanges
END exchanges

BEGIN solutiongroup  1
  ims6  tuto01_mf6.ims  tuto01_mf6.nam
END solutiongroup  1

