# File generated by Flopy version 3.3.2 on 11/25/2020 at 11:28:07.
BEGIN options
  SAVE_FLOWS
END options

BEGIN griddata
  icelltype
    CONSTANT  1
  k
    CONSTANT       1.00000000
END griddata

