# File generated by Flopy version 3.3.2 on 11/24/2020 at 09:16:43.
BEGIN options
END options

BEGIN packages
  DIS6  tutorial01_mf6.nam.dis  dis
  IC6  tutorial01_mf6.nam.ic  ic
  NPF6  tutorial01_mf6.nam.npf  npf
  CHD6  tutorial01_mf6.nam.chd  chd_0
  OC6  tutorial01_mf6.nam.oc  oc
END packages

