# File generated by Flopy version 3.3.2 on 01/18/2021 at 09:56:50.
BEGIN options
  COMPLEXITY  simple
END options

