# File generated by Flopy version 3.3.2 on 11/25/2020 at 11:40:00.
BEGIN options
  BUDGET  FILEOUT  tuto01_mf6.cbb
  HEAD  FILEOUT  tuto01_mf6.hds
END options

BEGIN period  1
  SAVE  HEAD  ALL
  SAVE  BUDGET  ALL
  PRINT  HEAD  LAST
END period  1

