# File generated by Flopy version 3.3.2 on 01/22/2021 at 11:51:49.
BEGIN options
  COMPLEXITY  simple
END options

