# File generated by Flopy version 3.3.2 on 01/22/2021 at 16:12:10.
BEGIN options
  BUDGET  FILEOUT  tuto01_mf6.bud
  HEAD  FILEOUT  tuto01_mf6.hds
END options

BEGIN period  1
  SAVE  HEAD  ALL
  SAVE  BUDGET  ALL
  PRINT  HEAD  LAST
END period  1

