# File generated by Flopy version 3.3.2 on 11/24/2020 at 09:16:43.
BEGIN options
  COMPLEXITY  simple
END options

