# File generated by Flopy version 3.3.2 on 01/22/2021 at 16:22:54.
BEGIN options
  COMPLEXITY  simple
END options

