# File generated by Flopy version 3.3.2 on 01/22/2021 at 11:51:49.
BEGIN options
  SAVE_FLOWS
END options

BEGIN griddata
  icelltype
    CONSTANT  1
  k
    CONSTANT       1.00000000
END griddata

