# File generated by Flopy version 3.3.2 on 11/25/2020 at 11:40:00.
BEGIN options
END options

BEGIN packages
  DIS6  tuto01_mf6.nam.dis  dis
  IC6  tuto01_mf6.nam.ic  ic
  NPF6  tuto01_mf6.nam.npf  npf
  CHD6  tuto01_mf6.nam.chd  chd_0
  OC6  tuto01_mf6.nam.oc  oc
END packages

