# File generated by Flopy version 3.3.2 on 11/25/2020 at 11:28:07.
BEGIN options
  COMPLEXITY  simple
END options

